Circuit: * C:\Users\joey2\Documents\3e jaar\BAP\Github\EDM_Powersupply\LTSpice\EDM_Powersupply\EDM_Powersupply_V4a_HSS.asc

Questionable use of curly braces in "b§e_abmgate yint 0 v={if(v(a)>{{vthresh}},{{vss}},{{vdd}})}"
    Error: undefined symbol in: "if([v](a)>((vthresh)),((vss)),((vdd)))"
Questionable use of curly braces in "b§e_abmgate yint 0 v={if(v(a)>{{vthresh}}&v(b)>{{vthresh}},{{vdd}},{{vss}})}"
    Error: undefined symbol in: "if([v](a)>((vthresh))&v(b)>((vthresh)),((vdd)),((vss)))"
Questionable use of curly braces in "b§e_abmgate yint 0 v={if(v(a)>{{vthresh}}&v(b)>{{vthresh}},{{vdd}},{{vss}})}"
    Error: undefined symbol in: "if([v](a)>((vthresh))&v(b)>((vthresh)),((vdd)),((vss)))"
Questionable use of curly braces in "b§e_abmgate yint 0 v={if(v(a)>{{vthresh}}&v(b)>{{vthresh}},{{vdd}},{{vss}})}"
    Error: undefined symbol in: "if([v](a)>((vthresh))&v(b)>((vthresh)),((vdd)),((vss)))"
Questionable use of curly braces in "b§e_abmgate yint 0 v={if(v(a)>{{vthresh}}&v(b)>{{vthresh}},{{vdd}},{{vss}})}"
    Error: undefined symbol in: "if([v](a)>((vthresh))&v(b)>((vthresh)),((vdd)),((vss)))"
Instance "m:m1:r": Length shorter than recommended for a level 1 MOSFET.
Instance "m:m1:r": Width narrower than recommended for a level 1 MOSFET.
Instance "m:u1:_m13:1": Length shorter than recommended for a level 1 MOSFET.
Instance "m:u1:_m16:1": Length shorter than recommended for a level 1 MOSFET.
Instance "m:u1:_m14:1": Length shorter than recommended for a level 1 MOSFET.
Instance "m:m1:1": Width narrower than recommended for a level 3 MOSFET.
Direct Newton iteration for .op point succeeded.
Heightened Def Con from 6.25021e-008 ++++++++++++++to 6.25031e-008
Heightened Def Con from 6.25031e-008 to 6.26437e-008
Heightened Def Con from 2.00621e-005 ++++to 2.00621e-005

Date: Sun Jun 02 17:59:54 2024
Total elapsed time: 0.370 seconds.

tnom = 27
temp = 27
method = modified trap
totiter = 10485
traniter = 10453
tranpoints = 3200
accept = 2456
rejected = 765
matrix size = 131
fillins = 68
solver = Normal
Thread vector: 24.5/11.3[2] 3.7/3.3[2] 3.5/2.7[2] 0.5/1.0[1]  2592/500
Matrix Compiler1: 7.33 KB object code size  2.9/1.3/[1.0]
Matrix Compiler2: 9.80 KB object code size  1.3/2.4/[1.0]

