Circuit: * C:\Users\joey2\Documents\3e jaar\BAP\Github\EDM_Powersupply\LTSpice\EDM_Powersupply\EDM_Powersupply_V1.asc

Questionable use of curly braces in "b§e_abmgate y 0 v={if(v(a)>{{vthresh}}&+v(b)>{{vthresh}}&+v(c)>{{vthresh}},{{vdd}},{{vss}})}"
    Error: undefined symbol in: "if([v](a)>((vthresh))&+v(b)>((vthresh))&+v(c)>((vthresh)),((vdd)),((vss)))"
Direct Newton iteration for .op point succeeded.

Date: Tue May 14 16:58:43 2024
Total elapsed time: 0.064 seconds.

tnom = 27
temp = 27
method = modified trap
totiter = 5473
traniter = 5465
tranpoints = 2387
accept = 1989
rejected = 398
matrix size = 47
fillins = 4
solver = Normal
Matrix Compiler1: 1.80 KB object code size  0.4/0.2/[0.1]
Matrix Compiler2: 3.17 KB object code size  0.2/0.4/[0.2]

