Circuit: * C:\Users\joey2\Documents\3e jaar\BAP\Github\EDM_Powersupply\LTSpice\EDM_Powersupply\EDM_Powersupply_V4b.asc

Instance "m:m1:r": Length shorter than recommended for a level 1 MOSFET.
Instance "m:m1:r": Width narrower than recommended for a level 1 MOSFET.
Instance "m:m1:1": Width narrower than recommended for a level 3 MOSFET.
Direct Newton iteration for .op point succeeded.

Date: Sat May 25 19:51:13 2024
Total elapsed time: 0.270 seconds.

tnom = 27
temp = 27
method = modified trap
totiter = 11903
traniter = 11885
tranpoints = 5289
accept = 3549
rejected = 1740
matrix size = 24
fillins = 9
solver = Normal
Matrix Compiler1: 2.00 KB object code size  0.8/0.4/[0.3]
Matrix Compiler2: 2.07 KB object code size  0.3/0.5/[0.3]

