Circuit: * C:\Users\joey2\Documents\3e jaar\BAP\Github\EDM_Powersupply\LTSpice\EDM_Powersupply\EDM_Powersupply_V4c.asc

Instance "m:m1:r": Length shorter than recommended for a level 1 MOSFET.
Instance "m:m1:r": Width narrower than recommended for a level 1 MOSFET.
Instance "m:m1:1": Width narrower than recommended for a level 3 MOSFET.
Direct Newton iteration for .op point succeeded.

Date: Sun May 26 18:04:18 2024
Total elapsed time: 0.217 seconds.

tnom = 27
temp = 27
method = modified trap
totiter = 4296
traniter = 4276
tranpoints = 1767
accept = 1225
rejected = 542
matrix size = 24
fillins = 7
solver = Normal
Matrix Compiler1: 1.96 KB object code size  0.7/0.4/[0.3]
Matrix Compiler2: 2.04 KB object code size  0.3/0.5/[0.3]

