Circuit: * C:\Users\11057\Documents\GitHub\Voeding\EDM_Powersupply\LTSpice\EDM_Powersupply\EDM_Powersupply_V2.asc

Questionable use of curly braces in "b§e_abmgate yint 0 v={if(v(a)>{{vthresh}},{{vss}},{{vdd}})}"
    Error: undefined symbol in: "if([v](a)>((vthresh)),((vss)),((vdd)))"
Questionable use of curly braces in "b§e_abmgate yint 0 v={if(v(a)>{{vthresh}}&v(b)>{{vthresh}},{{vdd}},{{vss}})}"
    Error: undefined symbol in: "if([v](a)>((vthresh))&v(b)>((vthresh)),((vdd)),((vss)))"
Questionable use of curly braces in "b§e_abmgate yint 0 v={if(v(a)>{{vthresh}}&v(b)>{{vthresh}},{{vdd}},{{vss}})}"
    Error: undefined symbol in: "if([v](a)>((vthresh))&v(b)>((vthresh)),((vdd)),((vss)))"
Questionable use of curly braces in "b§e_abmgate yint 0 v={if(v(a)>{{vthresh}}&v(b)>{{vthresh}},{{vdd}},{{vss}})}"
    Error: undefined symbol in: "if([v](a)>((vthresh))&v(b)>((vthresh)),((vdd)),((vss)))"
Questionable use of curly braces in "b§e_abmgate yint 0 v={if(v(a)>{{vthresh}}&v(b)>{{vthresh}},{{vdd}},{{vss}})}"
    Error: undefined symbol in: "if([v](a)>((vthresh))&v(b)>((vthresh)),((vdd)),((vss)))"
Instance "m:m1:r": Length shorter than recommended for a level 1 MOSFET.
Instance "m:m1:r": Width narrower than recommended for a level 1 MOSFET.
Instance "m:u1:_m13:1": Length shorter than recommended for a level 1 MOSFET.
Instance "m:u1:_m16:1": Length shorter than recommended for a level 1 MOSFET.
Instance "m:u1:_m14:1": Length shorter than recommended for a level 1 MOSFET.
Instance "m:m1:1": Width narrower than recommended for a level 3 MOSFET.
Direct Newton iteration for .op point succeeded.
Heightened Def Con from 6.25021e-008 +++++++++++++++++++++++++++++++++to 6.35177e-008
Heightened Def Con from 6.35177e-008 ++++++++++++++++++++++to 6.41427e-008
Heightened Def Con from 2.0578e-006 to 2.0578e-006
Heightened Def Con from 2.05808e-006 to 2.06108e-006
Heightened Def Con from 2.00656e-005 +++++++++++++++++++++++++++++++++to 2.00667e-005
Heightened Def Con from 2.00667e-005 ++++++++++++++++++++++to 2.00673e-005
Heightened Def Con from 4.00621e-005 +++++++++++++++++++++++++++++++++to 4.00631e-005
Heightened Def Con from 4.00631e-005 ++++++++++++++++++++++to 4.00637e-005
Heightened Def Con from 6.00621e-005 +++++++++++++++++++++++++++++++++to 6.00631e-005
Heightened Def Con from 6.00631e-005 ++++++++++++++++++++++to 6.00637e-005
Heightened Def Con from 8.00621e-005 +++++++++++++++++++++++++++++++++to 8.00631e-005
Heightened Def Con from 8.00631e-005 ++++++++++++++++++++++to 8.00637e-005
Heightened Def Con from 8.20578e-005 to 8.20608e-005

Date: Wed May 29 17:06:01 2024
Total elapsed time: 0.517 seconds.

tnom = 27
temp = 27
method = modified trap
totiter = 57154
traniter = 57122
tranpoints = 11104
accept = 6757
rejected = 4635
matrix size = 131
fillins = 47
solver = Normal
Thread vector: 7.9/5.8[2] 2.0/1.8[2] 2.4/1.5[2] 0.4/0.8[1]  2592/500
Matrix Compiler1: 5.97 KB object code size  1.1/0.6/[0.3]
Matrix Compiler2: 9.23 KB object code size  0.8/1.2/[0.4]

