Circuit: * C:\Users\11057\Documents\GitHub\Voeding\EDM_Powersupply\LTSpice\EDM_Powersupply\EDM_Powersupply_V4.asc

Questionable use of curly braces in "b§e_abmgate yint 0 v={if(v(a)>{{vthresh}},{{vss}},{{vdd}})}"
    Error: undefined symbol in: "if([v](a)>((vthresh)),((vss)),((vdd)))"
Questionable use of curly braces in "b§e_abmgate yint 0 v={if(v(a)>{{vthresh}}&v(b)>{{vthresh}},{{vdd}},{{vss}})}"
    Error: undefined symbol in: "if([v](a)>((vthresh))&v(b)>((vthresh)),((vdd)),((vss)))"
Questionable use of curly braces in "b§e_abmgate yint 0 v={if(v(a)>{{vthresh}}&v(b)>{{vthresh}},{{vdd}},{{vss}})}"
    Error: undefined symbol in: "if([v](a)>((vthresh))&v(b)>((vthresh)),((vdd)),((vss)))"
Questionable use of curly braces in "b§e_abmgate yint 0 v={if(v(a)>{{vthresh}}&v(b)>{{vthresh}},{{vdd}},{{vss}})}"
    Error: undefined symbol in: "if([v](a)>((vthresh))&v(b)>((vthresh)),((vdd)),((vss)))"
Questionable use of curly braces in "b§e_abmgate yint 0 v={if(v(a)>{{vthresh}}&v(b)>{{vthresh}},{{vdd}},{{vss}})}"
    Error: undefined symbol in: "if([v](a)>((vthresh))&v(b)>((vthresh)),((vdd)),((vss)))"
Instance "m:m1:r": Length shorter than recommended for a level 1 MOSFET.
Instance "m:m1:r": Width narrower than recommended for a level 1 MOSFET.
Instance "m:u1:_m13:1": Length shorter than recommended for a level 1 MOSFET.
Instance "m:u1:_m16:1": Length shorter than recommended for a level 1 MOSFET.
Instance "m:u1:_m14:1": Length shorter than recommended for a level 1 MOSFET.
Instance "m:m1:1": Width narrower than recommended for a level 3 MOSFET.
Direct Newton iteration for .op point succeeded.
Heightened Def Con from 1.38155e-009 to 2.1e-009
Heightened Def Con from 2.20677e-009 to 6.20677e-009
Heightened Def Con from 6.53497e-008 +to 6.53575e-008
Heightened Def Con from 2.00021e-005 to 2.00061e-005
Heightened Def Con from 2.00675e-005 +to 2.00675e-005
Heightened Def Con from 2.20575e-005 to 2.20605e-005
Heightened Def Con from 4.00014e-005 to 4.00064e-005
Heightened Def Con from 4.00659e-005 +++++to 4.00699e-005
Heightened Def Con from 6.00651e-005 +++to 6.00691e-005
Heightened Def Con from 8.00021e-005 to 8.00061e-005
Heightened Def Con from 8.00675e-005 to 8.00675e-005
Heightened Def Con from 8.00675e-005 to 8.0068e-005
Heightened Def Con from 8.20575e-005 to 8.20605e-005

Date: Wed Jun 12 10:29:33 2024
Total elapsed time: 0.374 seconds.

tnom = 27
temp = 27
method = modified trap
totiter = 20535
traniter = 20502
tranpoints = 7205
accept = 6010
rejected = 1218
matrix size = 137
fillins = 72
solver = Normal
Thread vector: 9.6/6.1[2] 2.2/2.0[2] 2.4/1.8[2] 0.5/0.8[1]  2592/500
Matrix Compiler1: 7.77 KB object code size  1.5/0.8/[0.5]
Matrix Compiler2: off  [0.7]/1.3/0.9

