Circuit: * C:\Users\joey2\Documents\3e jaar\BAP\Github\EDM_Powersupply\LTSpice\EDM_Powersupply\EDM_Powersupply_V4a_HSS.asc

Questionable use of curly braces in "b§e_abmgate yint 0 v={if(v(a)>{{vthresh}},{{vss}},{{vdd}})}"
    Error: undefined symbol in: "if([v](a)>((vthresh)),((vss)),((vdd)))"
Questionable use of curly braces in "b§e_abmgate yint 0 v={if(v(a)>{{vthresh}}&v(b)>{{vthresh}},{{vdd}},{{vss}})}"
    Error: undefined symbol in: "if([v](a)>((vthresh))&v(b)>((vthresh)),((vdd)),((vss)))"
Questionable use of curly braces in "b§e_abmgate yint 0 v={if(v(a)>{{vthresh}}&v(b)>{{vthresh}},{{vdd}},{{vss}})}"
    Error: undefined symbol in: "if([v](a)>((vthresh))&v(b)>((vthresh)),((vdd)),((vss)))"
Questionable use of curly braces in "b§e_abmgate yint 0 v={if(v(a)>{{vthresh}}&v(b)>{{vthresh}},{{vdd}},{{vss}})}"
    Error: undefined symbol in: "if([v](a)>((vthresh))&v(b)>((vthresh)),((vdd)),((vss)))"
Questionable use of curly braces in "b§e_abmgate yint 0 v={if(v(a)>{{vthresh}}&v(b)>{{vthresh}},{{vdd}},{{vss}})}"
    Error: undefined symbol in: "if([v](a)>((vthresh))&v(b)>((vthresh)),((vdd)),((vss)))"
Instance "m:m1:r": Length shorter than recommended for a level 1 MOSFET.
Instance "m:m1:r": Width narrower than recommended for a level 1 MOSFET.
Instance "m:u1:_m13:1": Length shorter than recommended for a level 1 MOSFET.
Instance "m:u1:_m16:1": Length shorter than recommended for a level 1 MOSFET.
Instance "m:u1:_m14:1": Length shorter than recommended for a level 1 MOSFET.
Instance "m:m1:1": Width narrower than recommended for a level 3 MOSFET.
Direct Newton iteration for .op point succeeded.
Heightened Def Con from 6.25021e-008 to 6.35177e-008
Heightened Def Con from 2.00637e-005 to 2.00647e-005
Heightened Def Con from 2.20569e-005 to 2.20569e-005
Heightened Def Con from 2.20575e-005 to 2.20605e-005

Date: Wed May 29 16:16:33 2024
Total elapsed time: 0.343 seconds.

tnom = 27
temp = 27
method = modified trap
totiter = 8619
traniter = 8587
tranpoints = 3299
accept = 2615
rejected = 688
matrix size = 134
fillins = 70
solver = Normal
Thread vector: 25.8/15.3[2] 7.3/5.8[2] 5.6/3.9[2] 0.6/1.1[1]  2592/500
Matrix Compiler1: 7.52 KB object code size  4.5/2.3/[1.3]
Matrix Compiler2: 10.02 KB object code size  2.1/3.3/[1.0]

