Circuit: * C:\Users\joey2\Documents\3e jaar\BAP\Github\EDM_Powersupply\LTSpice\EDM_Powersupply\EDM_Powersupply_V4_freq.asc

WARNING: Specified period is not longer than the sum of Trise, Tfall, and Ton for v1.  Increasing period to 4.2e-005
Instance "m:m1:r": Length shorter than recommended for a level 1 MOSFET.
Instance "m:m1:r": Width narrower than recommended for a level 1 MOSFET.
Instance "m:m1:1": Width narrower than recommended for a level 3 MOSFET.
Direct Newton iteration for .op point succeeded.

Date: Mon May 27 09:22:47 2024
Total elapsed time: 0.087 seconds.

tnom = 27
temp = 27
method = modified trap
totiter = 1714
traniter = 1694
tranpoints = 667
accept = 467
rejected = 200
matrix size = 22
fillins = 7
solver = Normal
Matrix Compiler1: 1.90 KB object code size  1.0/0.6/[0.4]
Matrix Compiler2: 1.93 KB object code size  0.6/0.8/[0.4]

