Circuit: * C:\Users\joey2\Documents\3e jaar\BAP\Github\EDM_Powersupply\LTSpice\EDM_Powersupply\EDM_Powersupply_V4a_HSS.asc

Questionable use of curly braces in "b§e_abmgate yint 0 v={if(v(a)>{{vthresh}},{{vss}},{{vdd}})}"
    Error: undefined symbol in: "if([v](a)>((vthresh)),((vss)),((vdd)))"
Questionable use of curly braces in "b§e_abmgate yint 0 v={if(v(a)>{{vthresh}}&v(b)>{{vthresh}},{{vdd}},{{vss}})}"
    Error: undefined symbol in: "if([v](a)>((vthresh))&v(b)>((vthresh)),((vdd)),((vss)))"
Questionable use of curly braces in "b§e_abmgate yint 0 v={if(v(a)>{{vthresh}}&v(b)>{{vthresh}},{{vdd}},{{vss}})}"
    Error: undefined symbol in: "if([v](a)>((vthresh))&v(b)>((vthresh)),((vdd)),((vss)))"
Questionable use of curly braces in "b§e_abmgate yint 0 v={if(v(a)>{{vthresh}}&v(b)>{{vthresh}},{{vdd}},{{vss}})}"
    Error: undefined symbol in: "if([v](a)>((vthresh))&v(b)>((vthresh)),((vdd)),((vss)))"
Questionable use of curly braces in "b§e_abmgate yint 0 v={if(v(a)>{{vthresh}}&v(b)>{{vthresh}},{{vdd}},{{vss}})}"
    Error: undefined symbol in: "if([v](a)>((vthresh))&v(b)>((vthresh)),((vdd)),((vss)))"
WARNING: Node N009 is floating.

WARNING: Less than two connections to node N009.  This node is used by C1.
Instance "m:m1:r": Length shorter than recommended for a level 1 MOSFET.
Instance "m:m1:r": Width narrower than recommended for a level 1 MOSFET.
Instance "m:u1:_m13:1": Length shorter than recommended for a level 1 MOSFET.
Instance "m:u1:_m16:1": Length shorter than recommended for a level 1 MOSFET.
Instance "m:u1:_m14:1": Length shorter than recommended for a level 1 MOSFET.
Instance "m:m1:1": Width narrower than recommended for a level 3 MOSFET.
Direct Newton iteration for .op point succeeded.
Heightened Def Con from 7.80831e-008 to 7.84581e-008
Heightened Def Con from 2.002e-006 to 2.004e-006
Heightened Def Con from 2.004e-006 +to 2.024e-006
Heightened Def Con from 2.072e-006 to 2.075e-006
Heightened Def Con from 2.07526e-006 to 2.07826e-006
Heightened Def Con from 2.00784e-005 to 2.00788e-005
Heightened Def Con from 2.2002e-005 to 2.2004e-005
Heightened Def Con from 2.2004e-005 to 2.2005e-005
Heightened Def Con from 2.2005e-005 to 2.20212e-005
Heightened Def Con from 2.2022e-005 to 2.2025e-005
Heightened Def Con from 2.2025e-005 to 2.2028e-005
Heightened Def Con from 2.20298e-005 to 2.20328e-005
Heightened Def Con from 2.2057e-005 to 2.206e-005
Heightened Def Con from 2.20729e-005 to 2.20759e-005
Heightened Def Con from 2.21516e-005 to 2.21527e-005

Date: Wed Jun 19 20:16:46 2024
Total elapsed time: 1.371 seconds.

tnom = 27
temp = 27
method = modified trap
totiter = 53908
traniter = 53876
tranpoints = 13022
accept = 9543
rejected = 3495
matrix size = 138
fillins = 78
solver = Normal
Thread vector: 11.9/9.2[2] 6.5/4.8[2] 5.2/3.6[2] 0.5/1.8[1]  2592/500
Matrix Compiler1: 8.20 KB object code size  4.2/2.0/[1.2]
Matrix Compiler2: 10.51 KB object code size  2.0/3.7/[1.0]

