Circuit: * C:\Users\joey2\Documents\3e jaar\BAP\Github\EDM_Powersupply\LTSpice\EDM_Powersupply\EDM_Powersupply_V3.asc

Questionable use of curly braces in "b§e_abmgate yint 0 v={if(v(a)>{{vthresh}},{{vss}},{{vdd}})}"
    Error: undefined symbol in: "if([v](a)>((vthresh)),((vss)),((vdd)))"
Questionable use of curly braces in "b§e_abmgate yint 0 v={if(v(a)>{{vthresh}}&v(b)>{{vthresh}},{{vdd}},{{vss}})}"
    Error: undefined symbol in: "if([v](a)>((vthresh))&v(b)>((vthresh)),((vdd)),((vss)))"
Questionable use of curly braces in "b§e_abmgate yint 0 v={if(v(a)>{{vthresh}}&v(b)>{{vthresh}},{{vdd}},{{vss}})}"
    Error: undefined symbol in: "if([v](a)>((vthresh))&v(b)>((vthresh)),((vdd)),((vss)))"
Questionable use of curly braces in "b§e_abmgate yint 0 v={if(v(a)>{{vthresh}}&v(b)>{{vthresh}},{{vdd}},{{vss}})}"
    Error: undefined symbol in: "if([v](a)>((vthresh))&v(b)>((vthresh)),((vdd)),((vss)))"
Questionable use of curly braces in "b§e_abmgate yint 0 v={if(v(a)>{{vthresh}}&v(b)>{{vthresh}},{{vdd}},{{vss}})}"
    Error: undefined symbol in: "if([v](a)>((vthresh))&v(b)>((vthresh)),((vdd)),((vss)))"
Instance "m:u1:_m13:1": Length shorter than recommended for a level 1 MOSFET.
Instance "m:u1:_m16:1": Length shorter than recommended for a level 1 MOSFET.
Instance "m:u1:_m14:1": Length shorter than recommended for a level 1 MOSFET.
Direct Newton iteration for .op point succeeded.
Heightened Def Con from 6.25021e-008 ++++++++++++++++++++++++++++++++++++to 6.25021e-008
Heightened Def Con from 6.25021e-008 +++++++++++++++++++++++to 6.25021e-008
Heightened Def Con from 1.00579e-005 ++++++++++++++++++++++++++++to 1.00583e-005
Heightened Def Con from 1.00583e-005 ++++++++++++++++++to 1.00583e-005
Heightened Def Con from 1.00583e-005 ++++to 1.00583e-005
Heightened Def Con from 0.000100062 ++++++++++++++++++++++++++++++++++++to 0.000100062
Heightened Def Con from 0.000100062 +++++++++++++++++++++++to 0.000100062
Heightened Def Con from 0.000110056 to 0.000110057
Heightened Def Con from 0.000110058 ++++++++++++++++++++++++++++to 0.000110058
Heightened Def Con from 0.000110058 ++++++++++++++++++to 0.000110058
Heightened Def Con from 0.000110058 ++++to 0.000110058

Date: Tue May 14 19:37:17 2024
Total elapsed time: 0.876 seconds.

tnom = 27
temp = 27
method = modified trap
totiter = 41158
traniter = 41126
tranpoints = 8619
accept = 6180
rejected = 2668
matrix size = 115
fillins = 37
solver = Normal
Thread vector: 9.4/8.2[2] 3.2/2.9[1] 3.2/2.2[2] 0.5/0.9[1]  2592/500
Matrix Compiler1: 4.09 KB object code size  1.9/0.9/[0.6]
Matrix Compiler2: 7.63 KB object code size  1.0/2.0/[0.7]

