Circuit: * C:\Users\joey2\Documents\3e jaar\BAP\Github\EDM_Powersupply\LTSpice\EDM_Powersupply\EDM_Powersupply_V1.asc

Questionable use of curly braces in "b§e_abmgate y 0 v={if(v(a)>{{vthresh}}&+v(b)>{{vthresh}}&+v(c)>{{vthresh}},{{vdd}},{{vss}})}"
    Error: undefined symbol in: "if([v](a)>((vthresh))&+v(b)>((vthresh))&+v(c)>((vthresh)),((vdd)),((vss)))"
Instance "m:m1:r": Length shorter than recommended for a level 1 MOSFET.
Instance "m:m1:r": Width narrower than recommended for a level 1 MOSFET.
Instance "m:m1:1": Width narrower than recommended for a level 3 MOSFET.
Direct Newton iteration failed to find .op point.  (Use ".option noopiter" to skip.)
Starting Gmin stepping
Gmin = 10
Gmin = 1.07374
Gmin = 0.115292
Gmin = 0.0123794
Gmin = 0.00132923
Gmin = 0.000142725
Gmin = 1.5325e-005
Gmin = 1.6455e-006
Gmin = 1.76685e-007
Gmin = 1.89714e-008
Gmin = 2.03704e-009
Gmin = 2.18725e-010
Gmin = 2.34854e-011
Gmin = 2.52173e-012
Gmin = 2.70769e-013
Gmin = 0
Gmin stepping succeeded in finding the operating point.

Heightened Def Con from 0.000300001 to 0.000300002

Date: Tue May 14 09:38:05 2024
Total elapsed time: 0.260 seconds.

tnom = 27
temp = 27
method = modified trap
totiter = 10303
traniter = 9906
tranpoints = 4071
accept = 3267
rejected = 805
matrix size = 63
fillins = 14
solver = Normal
Matrix Compiler1: 3.70 KB object code size  1.4/0.7/[0.5]
Matrix Compiler2: 4.79 KB object code size  0.8/1.4/[0.8]

