Circuit: * C:\Users\joey2\Documents\3e jaar\BAP\Github\EDM_Powersupply\LTSpice\EDM_Powersupply\EDM_Powersupply_V4a.asc

Questionable use of curly braces in "b§e_abmgate yint 0 v={if(v(a)>{{vthresh}},{{vss}},{{vdd}})}"
    Error: undefined symbol in: "if([v](a)>((vthresh)),((vss)),((vdd)))"
Questionable use of curly braces in "b§e_abmgate yint 0 v={if(v(a)>{{vthresh}}&v(b)>{{vthresh}},{{vdd}},{{vss}})}"
    Error: undefined symbol in: "if([v](a)>((vthresh))&v(b)>((vthresh)),((vdd)),((vss)))"
Questionable use of curly braces in "b§e_abmgate yint 0 v={if(v(a)>{{vthresh}}&v(b)>{{vthresh}},{{vdd}},{{vss}})}"
    Error: undefined symbol in: "if([v](a)>((vthresh))&v(b)>((vthresh)),((vdd)),((vss)))"
Questionable use of curly braces in "b§e_abmgate yint 0 v={if(v(a)>{{vthresh}}&v(b)>{{vthresh}},{{vdd}},{{vss}})}"
    Error: undefined symbol in: "if([v](a)>((vthresh))&v(b)>((vthresh)),((vdd)),((vss)))"
Questionable use of curly braces in "b§e_abmgate yint 0 v={if(v(a)>{{vthresh}}&v(b)>{{vthresh}},{{vdd}},{{vss}})}"
    Error: undefined symbol in: "if([v](a)>((vthresh))&v(b)>((vthresh)),((vdd)),((vss)))"
WARNING: Node N008 is floating.

Instance "m:m1:r": Length shorter than recommended for a level 1 MOSFET.
Instance "m:m1:r": Width narrower than recommended for a level 1 MOSFET.
Instance "m:u1:_m13:1": Length shorter than recommended for a level 1 MOSFET.
Instance "m:u1:_m16:1": Length shorter than recommended for a level 1 MOSFET.
Instance "m:u1:_m14:1": Length shorter than recommended for a level 1 MOSFET.
Instance "m:m1:1": Width narrower than recommended for a level 3 MOSFET.
Direct Newton iteration for .op point succeeded.
Heightened Def Con from 6.25021e-008 to 6.35041e-008
Heightened Def Con from 2.00661e-005 +to 2.00661e-005
Heightened Def Con from 2.00661e-005 to 2.00661e-005

Date: Mon May 27 10:40:13 2024
Total elapsed time: 0.227 seconds.

tnom = 27
temp = 27
method = modified trap
totiter = 6610
traniter = 6578
tranpoints = 2329
accept = 1991
rejected = 342
matrix size = 133
fillins = 46
solver = Normal
Thread vector: 11.5/9.2[2] 4.1/3.7[2] 3.6/3.6[1] 0.4/2.4[1]  2592/500
Matrix Compiler1: 6.02 KB object code size  3.1/1.2/[0.7]
Matrix Compiler2: 9.33 KB object code size  1.2/2.6/[1.0]

