Circuit: * C:\Users\11057\Documents\GitHub\Voeding\EDM_Powersupply\LTSpice\EDM_Powersupply\EDM_Powersupply.asc

Questionable use of curly braces in "b§e_abmgate yint 0 v={if(v(a)>{{vthresh}},{{vss}},{{vdd}})}"
    Error: undefined symbol in: "if([v](a)>((vthresh)),((vss)),((vdd)))"
Questionable use of curly braces in "b§e_abmgate yint 0 v={if(v(a)>{{vthresh}}&v(b)>{{vthresh}},{{vdd}},{{vss}})}"
    Error: undefined symbol in: "if([v](a)>((vthresh))&v(b)>((vthresh)),((vdd)),((vss)))"
Questionable use of curly braces in "b§e_abmgate yint 0 v={if(v(a)>{{vthresh}}&v(b)>{{vthresh}},{{vdd}},{{vss}})}"
    Error: undefined symbol in: "if([v](a)>((vthresh))&v(b)>((vthresh)),((vdd)),((vss)))"
Questionable use of curly braces in "b§e_abmgate yint 0 v={if(v(a)>{{vthresh}}&v(b)>{{vthresh}},{{vdd}},{{vss}})}"
    Error: undefined symbol in: "if([v](a)>((vthresh))&v(b)>((vthresh)),((vdd)),((vss)))"
Questionable use of curly braces in "b§e_abmgate yint 0 v={if(v(a)>{{vthresh}}&v(b)>{{vthresh}},{{vdd}},{{vss}})}"
    Error: undefined symbol in: "if([v](a)>((vthresh))&v(b)>((vthresh)),((vdd)),((vss)))"
Error on line 12 : m1 com n006 n007 n007 nmos
	 Unable to find definition of model ""
Limiting rise time of source v4 to 1e-006
Limiting fall time of source v4 to 1e-006
Instance "m:u2:_m13:1": Length shorter than recommended for a level 1 MOSFET.
Instance "m:u2:_m16:1": Length shorter than recommended for a level 1 MOSFET.
Instance "m:u2:_m14:1": Length shorter than recommended for a level 1 MOSFET.
Direct Newton iteration for .op point succeeded.
Heightened Def Con from 7.00165e-007 to 7.00165e-007

Date: Tue May 14 10:33:53 2024
Total elapsed time: 63.557 seconds.

tnom = 27
temp = 27
method = modified trap
totiter = 4751697
traniter = 4751663
tranpoints = 921614
accept = 691204
rejected = 230411
matrix size = 115
fillins = 59
solver = Normal
Thread vector: 5.6/3.4[2] 1.2/1.2[1] 1.7/2.7[1] 0.2/0.7[1]  2592/500
Matrix Compiler1: 5.52 KB object code size  0.9/0.5/[0.2]
Matrix Compiler2: 8.30 KB object code size  0.4/0.9/[0.3]

