Circuit: * C:\Users\joey2\Documents\3e jaar\BAP\Github\EDM_Powersupply\LTSpice\EDM_Powersupply\EDM_Powersupply_V2.asc

Questionable use of curly braces in "b§e_abmgate yint 0 v={if(v(a)>{{vthresh}},{{vss}},{{vdd}})}"
    Error: undefined symbol in: "if([v](a)>((vthresh)),((vss)),((vdd)))"
Questionable use of curly braces in "b§e_abmgate yint 0 v={if(v(a)>{{vthresh}}&v(b)>{{vthresh}},{{vdd}},{{vss}})}"
    Error: undefined symbol in: "if([v](a)>((vthresh))&v(b)>((vthresh)),((vdd)),((vss)))"
Questionable use of curly braces in "b§e_abmgate yint 0 v={if(v(a)>{{vthresh}}&v(b)>{{vthresh}},{{vdd}},{{vss}})}"
    Error: undefined symbol in: "if([v](a)>((vthresh))&v(b)>((vthresh)),((vdd)),((vss)))"
Questionable use of curly braces in "b§e_abmgate yint 0 v={if(v(a)>{{vthresh}}&v(b)>{{vthresh}},{{vdd}},{{vss}})}"
    Error: undefined symbol in: "if([v](a)>((vthresh))&v(b)>((vthresh)),((vdd)),((vss)))"
Questionable use of curly braces in "b§e_abmgate yint 0 v={if(v(a)>{{vthresh}}&v(b)>{{vthresh}},{{vdd}},{{vss}})}"
    Error: undefined symbol in: "if([v](a)>((vthresh))&v(b)>((vthresh)),((vdd)),((vss)))"
Instance "m:u1:_m13:1": Length shorter than recommended for a level 1 MOSFET.
Instance "m:u1:_m16:1": Length shorter than recommended for a level 1 MOSFET.
Instance "m:u1:_m14:1": Length shorter than recommended for a level 1 MOSFET.
Direct Newton iteration for .op point succeeded.
Heightened Def Con from 6.41012e-008 ++++++++++++++++++++++++++++++++++to 6.41012e-008
Heightened Def Con from 6.41012e-008 ++++++++++++++++++++++to 6.41013e-008
Heightened Def Con from 1.00579e-005 ++++++++++++++++++++++++++++to 1.00583e-005
Heightened Def Con from 1.00583e-005 ++++++++++++++++++to 1.00583e-005
Heightened Def Con from 1.00583e-005 +++++to 1.00583e-005
Heightened Def Con from 0.000100063 ++++++++++++++++++++++++++++++++++to 0.000100063
Heightened Def Con from 0.000100063 ++++++++++++++++++++++to 0.000100063
Heightened Def Con from 0.000110058 ++++++++++++++++++++++++++++to 0.000110058
Heightened Def Con from 0.000110058 ++++++++++++++++++to 0.000110058
Heightened Def Con from 0.000110058 +++++to 0.000110058

Date: Tue May 14 09:37:55 2024
Total elapsed time: 2.077 seconds.

tnom = 27
temp = 27
method = modified trap
totiter = 84077
traniter = 84045
tranpoints = 18664
accept = 13746
rejected = 5142
matrix size = 115
fillins = 57
solver = Normal
Thread vector: 9.9/8.4[2] 2.5/2.4[1] 3.3/2.2[2] 0.5/0.8[1]  2592/500
Matrix Compiler1: 5.43 KB object code size  2.2/1.1/[0.8]
Matrix Compiler2: 8.26 KB object code size  1.1/2.0/[0.8]

