Circuit: * C:\Users\joey2\Documents\3e jaar\BAP\Github\EDM_Powersupply\LTSpice\EDM_Powersupply\EDM_Powersupply_V5.asc

Questionable use of curly braces in "b§e_abmgate yint 0 v={if(v(a)>{{vthresh}},{{vss}},{{vdd}})}"
    Error: undefined symbol in: "if([v](a)>((vthresh)),((vss)),((vdd)))"
Questionable use of curly braces in "b§e_abmgate yint 0 v={if(v(a)>{{vthresh}}&v(b)>{{vthresh}},{{vdd}},{{vss}})}"
    Error: undefined symbol in: "if([v](a)>((vthresh))&v(b)>((vthresh)),((vdd)),((vss)))"
Questionable use of curly braces in "b§e_abmgate yint 0 v={if(v(a)>{{vthresh}}&v(b)>{{vthresh}},{{vdd}},{{vss}})}"
    Error: undefined symbol in: "if([v](a)>((vthresh))&v(b)>((vthresh)),((vdd)),((vss)))"
Questionable use of curly braces in "b§e_abmgate yint 0 v={if(v(a)>{{vthresh}}&v(b)>{{vthresh}},{{vdd}},{{vss}})}"
    Error: undefined symbol in: "if([v](a)>((vthresh))&v(b)>((vthresh)),((vdd)),((vss)))"
Questionable use of curly braces in "b§e_abmgate yint 0 v={if(v(a)>{{vthresh}}&v(b)>{{vthresh}},{{vdd}},{{vss}})}"
    Error: undefined symbol in: "if([v](a)>((vthresh))&v(b)>((vthresh)),((vdd)),((vss)))"
Instance "m:u1:_m13:1": Length shorter than recommended for a level 1 MOSFET.
Instance "m:u1:_m16:1": Length shorter than recommended for a level 1 MOSFET.
Instance "m:u1:_m14:1": Length shorter than recommended for a level 1 MOSFET.
Direct Newton iteration for .op point succeeded.
Heightened Def Con from 6.46182e-008 to 6.56202e-008
Heightened Def Con from 6.56202e-008 to 6.96202e-008
Heightened Def Con from 9.99399e-006 to 9.99499e-006
Heightened Def Con from 1.0004e-005 to 1.00051e-005
Heightened Def Con from 1.00562e-005 to 1.00563e-005
Heightened Def Con from 1.00578e-005 +++++++++++++++++to 1.00581e-005
Heightened Def Con from 1.00581e-005 +++++++++to 1.00593e-005
Heightened Def Con from 0.00010006 ++++++++++++++++++++++++to 0.000100062
Heightened Def Con from 0.000100062 +++++++++to 0.000100063
Heightened Def Con from 0.000100065 +++++++++++++++++to 0.000100066
Heightened Def Con from 0.000100066 to 0.000100067
Heightened Def Con from 0.000110004 +to 0.000110005
Heightened Def Con from 0.000110056 to 0.000110057
Heightened Def Con from 0.000110058 +++++++++++++++++to 0.000110058
Heightened Def Con from 0.000110058 +++++++++to 0.000110059

Date: Tue May 21 22:22:12 2024
Total elapsed time: 0.693 seconds.

tnom = 27
temp = 27
method = modified trap
totiter = 26365
traniter = 26333
tranpoints = 7134
accept = 5877
rejected = 1375
matrix size = 116
fillins = 54
solver = Normal
Thread vector: 13.7/10.4[2] 5.2/4.6[2] 4.7/3.4[2] 0.4/1.0[1]  2592/500
Matrix Compiler1: 5.46 KB object code size  3.3/1.6/[0.9]
Matrix Compiler2: 8.27 KB object code size  1.6/2.7/[0.8]

