Circuit: * C:\Users\joey2\Documents\3e jaar\BAP\Github\EDM_Powersupply\LTSpice\EDM_Powersupply\EDM_Powersupply_V4.asc

Questionable use of curly braces in "b§e_abmgate yint 0 v={if(v(a)>{{vthresh}},{{vss}},{{vdd}})}"
    Error: undefined symbol in: "if([v](a)>((vthresh)),((vss)),((vdd)))"
Questionable use of curly braces in "b§e_abmgate yint 0 v={if(v(a)>{{vthresh}}&v(b)>{{vthresh}},{{vdd}},{{vss}})}"
    Error: undefined symbol in: "if([v](a)>((vthresh))&v(b)>((vthresh)),((vdd)),((vss)))"
Questionable use of curly braces in "b§e_abmgate yint 0 v={if(v(a)>{{vthresh}}&v(b)>{{vthresh}},{{vdd}},{{vss}})}"
    Error: undefined symbol in: "if([v](a)>((vthresh))&v(b)>((vthresh)),((vdd)),((vss)))"
Questionable use of curly braces in "b§e_abmgate yint 0 v={if(v(a)>{{vthresh}}&v(b)>{{vthresh}},{{vdd}},{{vss}})}"
    Error: undefined symbol in: "if([v](a)>((vthresh))&v(b)>((vthresh)),((vdd)),((vss)))"
Questionable use of curly braces in "b§e_abmgate yint 0 v={if(v(a)>{{vthresh}}&v(b)>{{vthresh}},{{vdd}},{{vss}})}"
    Error: undefined symbol in: "if([v](a)>((vthresh))&v(b)>((vthresh)),((vdd)),((vss)))"
Instance "m:u1:_m13:1": Length shorter than recommended for a level 1 MOSFET.
Instance "m:u1:_m16:1": Length shorter than recommended for a level 1 MOSFET.
Instance "m:u1:_m14:1": Length shorter than recommended for a level 1 MOSFET.
Direct Newton iteration for .op point succeeded.
Heightened Def Con from 6.25021e-008 +++++++++++++++++++++++++++++++++++++to 6.35041e-008
Heightened Def Con from 6.35041e-008 ++++++++++++++++++++++++to 6.35509e-008
Heightened Def Con from 6.35509e-008 +++++++++++++to 6.46759e-008
Heightened Def Con from 1.00579e-005 ++++++++++++++++++++++++++++to 1.0058e-005
Heightened Def Con from 1.0058e-005 ++++++++++++++++++to 1.0058e-005
Heightened Def Con from 1.0058e-005 +++++++to 1.00581e-005
Heightened Def Con from 0.000100062 +++++++++++++++++++++++++++++++++++++to 0.000100063
Heightened Def Con from 0.000100063 ++++++++++++++++++++++++to 0.000100063
Heightened Def Con from 0.000100063 +++++++++++++to 0.000100064
Heightened Def Con from 0.000110058 ++++++++++++++++++++++++++++to 0.000110058
Heightened Def Con from 0.000110058 ++++++++++++++++++to 0.000110058
Heightened Def Con from 0.000110058 +++++++to 0.000110058

Date: Mon May 20 19:44:50 2024
Total elapsed time: 1.096 seconds.

tnom = 27
temp = 27
method = modified trap
totiter = 52753
traniter = 52721
tranpoints = 9120
accept = 6286
rejected = 3100
matrix size = 115
fillins = 54
solver = Normal
Thread vector: 9.1/7.2[2] 3.4/3.0[2] 3.3/3.0[1] 0.4/1.1[1]  2592/500
Matrix Compiler1: 5.25 KB object code size  2.2/1.0/[0.7]
Matrix Compiler2: 8.16 KB object code size  1.0/2.1/[0.7]

